36
	Energy:     202.2844788
C          8.83762        1.61610        0.41930
C         10.82200        3.21813        0.48197
C          8.72869        0.25612        0.36450
N         13.12791        2.54015        0.22689
C          8.36848       -1.84919        0.28870
C         15.35320        1.41545        0.36562
C         10.65695       -2.90410        0.22514
N         12.92542       -1.96698        0.25594
C         15.20168       -0.99226        0.31500
C         17.34234        0.03529        0.42432
C         10.21684        1.83850        0.40712
C         12.14051        3.53547        0.42897
N          7.74694       -0.64573        0.34298
C          9.93893       -0.29433        0.32750
C         14.55472        2.67265        0.37593
C          9.76921       -1.68787        0.27736
C         14.62814        0.24698        0.31420
C         16.75065        1.31937        0.42990
C         12.00387       -3.04438        0.21646
C         14.28997       -2.16226        0.26928
H         10.12640        4.04137        0.61808
H          7.84004       -2.79384        0.26132
N         15.12689        3.81301        0.54886
H         17.36860        2.20657        0.48028
H         10.11109       -3.84388        0.19228
H         12.39225       -4.05928        0.17901
O         14.75917       -3.29137        0.25030
N         16.56091       -1.09122        0.36703
H         18.41881       -0.06111        0.46934
O         10.85203        0.65411        0.35487
H          8.04034        2.34623        0.46479
H         12.42510        4.57374        0.55132
H         14.60335        4.69698        0.57270
H         12.54701       -1.01716        0.27910
H         12.78322        1.62333       -0.03667
H          6.71913       -0.46436        0.36505
